Version 4
SHEET 1 880 680
WIRE 64 32 16 32
WIRE 192 32 144 32
WIRE 16 96 16 32
WIRE 256 112 128 112
WIRE 192 128 192 32
WIRE 128 144 128 112
WIRE 160 144 128 144
WIRE 256 160 256 112
WIRE 256 160 224 160
WIRE 368 160 256 160
WIRE -176 176 -256 176
WIRE -64 176 -96 176
WIRE -32 176 -64 176
WIRE 80 176 48 176
WIRE 160 176 80 176
WIRE 368 192 368 160
WIRE 464 192 368 192
WIRE -256 224 -256 176
WIRE 80 224 80 176
WIRE 192 256 192 192
WIRE 80 320 80 288
WIRE -256 336 -256 304
WIRE -64 368 -64 176
WIRE 176 368 -64 368
WIRE 368 368 368 192
WIRE 368 368 240 368
FLAG 192 256 0
FLAG 80 320 0
FLAG -256 336 0
FLAG 464 192 Out
IOPIN 464 192 Out
FLAG 16 96 0
SYMBOL cap 240 352 R90
WINDOW 0 0 32 VBottom 2
WINDOW 3 32 32 VTop 2
SYMATTR InstName C1
SYMATTR Value 39n
SYMBOL res 64 160 R90
WINDOW 0 0 56 VBottom 2
WINDOW 3 32 56 VTop 2
SYMATTR InstName R1
SYMATTR Value 536k
SYMBOL res -80 160 R90
WINDOW 0 0 56 VBottom 2
WINDOW 3 32 56 VTop 2
SYMATTR InstName R2
SYMATTR Value 19.1k
SYMBOL cap 96 288 R180
WINDOW 0 24 56 Left 2
WINDOW 3 24 8 Left 2
SYMATTR InstName C2
SYMATTR Value 3.9n
SYMBOL voltage -256 208 R0
WINDOW 3 24 152 Left 2
WINDOW 123 24 124 Left 2
WINDOW 39 0 0 Left 0
SYMATTR InstName V1
SYMATTR Value 3.3
SYMATTR Value2 AC 1
SYMBOL voltage 160 32 R90
WINDOW 123 0 0 Left 0
WINDOW 39 0 0 Left 0
SYMATTR InstName V2
SYMATTR Value 3.3
SYMBOL Opamps\\LTC6240 192 160 R0
SYMATTR InstName U1
TEXT -162 408 Left 2 !.ac dec 1k 100m 100k
TEXT 360 136 Left 2 !;tran 0 100m 0 1m
TEXT -136 464 Left 2 !;.dc V1 0 3.3 1m
