Version 4
SHEET 1 1380 680
WIRE 400 144 272 144
WIRE 48 160 -128 160
WIRE 400 160 400 144
WIRE -128 176 -128 160
WIRE 352 176 272 176
WIRE 48 192 -48 192
WIRE 320 208 272 208
WIRE 784 208 784 192
WIRE 784 208 688 208
WIRE 848 208 784 208
WIRE 1008 208 928 208
WIRE 1104 208 1008 208
WIRE 1168 208 1104 208
WIRE 1312 208 1168 208
WIRE 48 224 -112 224
WIRE 320 240 320 208
WIRE 320 240 272 240
WIRE 368 240 320 240
WIRE 48 256 -48 256
WIRE 448 272 272 272
WIRE 928 288 928 272
WIRE 928 288 784 288
WIRE 1008 288 928 288
WIRE 1104 288 1104 208
WIRE 1168 288 1168 208
WIRE 1312 288 1312 208
WIRE 336 304 272 304
WIRE 448 304 448 272
WIRE 48 320 -16 320
WIRE 1008 320 1008 288
WIRE 336 336 336 304
WIRE 336 336 272 336
WIRE 368 336 336 336
WIRE -448 352 -448 336
WIRE -320 352 -448 352
WIRE -240 352 -320 352
WIRE -160 352 -240 352
WIRE -320 368 -320 352
WIRE -240 368 -240 352
WIRE -160 368 -160 352
WIRE -16 368 -16 320
WIRE -448 384 -448 352
WIRE 448 400 448 368
WIRE 1008 416 1008 400
WIRE 1104 416 1104 352
WIRE 1104 416 1008 416
WIRE 1168 416 1168 352
WIRE 1168 416 1104 416
WIRE 1312 416 1312 368
WIRE 1312 416 1168 416
WIRE 1008 432 1008 416
WIRE -320 464 -320 432
WIRE -240 464 -240 432
WIRE -240 464 -320 464
WIRE -160 464 -160 432
WIRE -160 464 -240 464
WIRE -240 496 -240 464
WIRE -448 512 -448 464
FLAG 448 400 0
FLAG -128 176 0
FLAG 400 160 0
FLAG 368 336 Vin
FLAG -448 336 Vin
FLAG -448 512 0
FLAG -240 496 0
FLAG 368 240 SW
FLAG 352 176 RT
FLAG -48 192 Boot
FLAG -48 256 FB
FLAG -16 368 0
FLAG -112 224 Vin
FLAG 784 128 Boot
FLAG 688 208 SW
FLAG 1008 432 0
FLAG 784 288 FB
SYMBOL AutoGenerated\\LMR23630_TRANS 160 240 R0
SYMATTR InstName U1
SYMATTR SpiceLine MODE=1
SYMBOL cap 432 304 R0
SYMATTR InstName C1
SYMATTR Value 2.2µ
SYMBOL voltage -448 368 R0
WINDOW 123 0 0 Left 0
WINDOW 39 24 124 Left 2
SYMATTR SpiceLine Rser=0.01
SYMATTR InstName V1
SYMATTR Value 28
SYMBOL cap -336 368 R0
SYMATTR InstName C2
SYMATTR Value 4.7µ
SYMBOL cap -256 368 R0
SYMATTR InstName C3
SYMATTR Value 4.7µ
SYMBOL cap -176 368 R0
SYMATTR InstName C4
SYMATTR Value 0.1µ
SYMBOL cap 768 128 R0
SYMATTR InstName C5
SYMATTR Value 470n
SYMBOL ind 832 224 R270
WINDOW 0 32 56 VTop 2
WINDOW 3 5 56 VBottom 2
SYMATTR InstName L1
SYMATTR Value 15µ
SYMATTR SpiceLine Rser=27m
SYMBOL cap 912 208 R0
SYMATTR InstName C6
SYMATTR Value 47p
SYMBOL res 992 192 R0
SYMATTR InstName R1
SYMATTR Value 88.7k
SYMBOL res 992 304 R0
SYMATTR InstName R2
SYMATTR Value 22.1k
SYMBOL cap 1088 288 R0
SYMATTR InstName C7
SYMATTR Value 100µ
SYMBOL cap 1152 288 R0
SYMATTR InstName C8
SYMATTR Value 100µ
SYMBOL res 1296 272 R0
SYMATTR InstName R3
SYMATTR Value 2.5
TEXT 88 440 Left 2 !.tran 0 500m 0 10u startup
