**$ENCRYPTED_LIB
**$INTERFACE
*$
*  TPS62177
*****************************************************************************
*  (C) Copyright 2012 Texas Instruments Incorporated. All rights reserved.
*****************************************************************************
** This model is designed as an aid for customers of Texas Instruments.
** TI and its licensors and suppliers make no warranties, either expressed
** or implied, with respect to this model, including the warranties of 
** merchantability or fitness for a particular purpose.  The model is
** provided solely on an "as is" basis.  The entire risk as to its quality
** and performance is with the customer
*****************************************************************************
*
** Released by: WEBENCH Design Center, Texas Instruments Inc.
* Part: TPS62177
* Date: 20JUL2012
* Model Type: TRANSIENT
* Simulator: PSPICE
* Simulator Version: 16.2.0.p001
* EVM Order Number: N/A
* EVM Users Guide: N/A
* Datasheet: SLVSB35 MARCH 2012
*
* Model Version: Final 1.00
*
*****************************************************************************
*
* Updates:
*
* Final 1.00
* Release to Web.
*
*****************************************************************************
.SUBCKT TPS62177_TRANS AGND EN ETPAD FB ILIM PG PGND SLEEP SW VIN VOS  
$CDNENCSTART
eee8c5c7a2bc4b01f045f303678664e7916da0bae22e8cb0bba041dd67c69ce448ea70148a9ac1670c8926c1ac5057c8ccfcd77bf87ca9dc4d0ef8cd4a9bb0be
abc05a84349f7fe5c96874453e4de45de01c7c5f2f296a03644126c9831a96bda4340d1342adf64d6da1e4e9a95c1ae091dd65f2a1d7e3d3545bb6bdbc1c2a8b
3bdfb3bcf8540f571b096e7e9e9f1140c2a1a720ef446e41e5249bf448dad1a6454e25a4a9e76affb8a3a1fac16e2d27a97cbfa256a6ac5aa5dcd40ffa7720fe
615a28c46d72374091424fe002279da2da01dcc530add54858529d74b9c209fb644126c9831a96bda4340d1342adf64d6da1e4e9a95c1ae064bc718effa8b05b
71dbbe87e53e082fa3e34a01a105a703fabd26fd305dfcdedc87be920d1402106af9d5413214ba985911b2e9db277617a5257eba54077ab533e2f8376c8fd83d
b0d130b91dfdd8605a0aa31c52cddba976617f42cd5d956ba4340d1342adf64d6da1e4e9a95c1ae091dd65f2a1d7e3d30b8a6d3c58272e46a0cd98020b8386f2
b0eb42ca922cce592fbfcc2b872ff946d9e6a14d9d22123bce5ec34e6f8ad1ca8dca2cdf8273d91e9818003be8f0e11c170f0f93df38f93f58ebfc19f84cdea2
b5f1c17ee795630348fa2b801bbe70ad7ec3b91f96cb5d16db8b64706bcf3d7913fbf2c0d96c1a0430db37560a30a0a040bc98df3837a0aefb23c5cb58ac1928
1382390ab0121a6d706b807646b80371819089c4b6e02c05ed790249e514720dbc436b4e3d3ea4d6baf6624548e773934481f81f784158a5226391755dcbb13e
4cf15dd054af3484706b807646b80371028feed6d6b9aee868d7dae3d278fb41ca5199e49ff46ef093f0978bcaae26c25e907deffd12c5fff9224a01a31d483a
b31205aa407e75cde847dda77d5f9443a4340d1342adf64d6da1e4e9a95c1ae091dd65f2a1d7e3d30b8a6d3c58272e46f729696f8051456885a287c7f30dfddb
4b6085f2012636675a0aa31c52cddba976617f42cd5d956ba4340d1342adf64d6da1e4e9a95c1ae091dd65f2a1d7e3d30b8a6d3c58272e46a0cd98020b8386f2
0054ee842a2f2d50706b807646b80371b05215e69f495b0deba12606d697390a4f8bfb77fa42da9cc97dc8871ae65180fc51fff62f64f85d9657e112ba03c526
7093e6892f2ddff7706b807646b80371ca984ee7c126e2951bf3fa738fe04ab3eba12606d697390abf1ee911780421dd48fa2b801bbe70adf7403ac294d20be0
6d49de955a519fb59f50c449b546348c3fd6864ccd1316b170df004b9c941b6f66eaeb9fc4cc8ae10d84fbc6657014080d56edd01eb536d9ede3a99448520d58
8675a01b2db95be79415b2e6462e99b69bd9057afffc8a022806b0569de89693c0df281eecaf0447ccb11180063fcbc11fe13b31a2eea9fd19cc5d40a4ac5a35
2986d3b813782655a665d0fac02ce03e91e8ddb1dba1fb1d9df60385b5e628bbf4387aa48b7e32fa599dd2682f9397f59415b2e6462e99b6c2a933d5a84aa0ce
559179dbf867a82c706b807646b80371bb822d12aaf70a11853f74912e664fca6e40ab58d272faa189f3af819ef82909c97dc8871ae6518079efbecea8dc6c48
3f99b10da6812e57706b807646b803711e9f2beca5544e9b35b056b1af264623bf1ee911780421dd48fa2b801bbe70ad7ec3b91f96cb5d16a18c6e8c0bbbbd55
6d49de955a519fb50fa4ea595ab98ca03fd6864ccd1316b1929491c369b13f9866eaeb9fc4cc8ae1f0bc42d3adb74067f140a0b8c1e769ab3fc8faff822d845f
af399d32d282acb6f189b8d6c9ffd7d874c13f70e0d25e2a01cbeeb626e629d06ec87a08b8e591ff02b5fc57fc67f6e3bc6d1513a31871a9a8266151f2f09bf5
2986d3b813782655eb878487763963838113e6fe0d5b51dadc1f952bb95b81f2b31810c0452fc4458ce9a9b04e2dd1748318958aa75d4556dd0a70f33e2447ea
4e2689494256295447158635b18b66599415b2e6462e99b69bd9057afffc8a022806b0569de89693c0df281eecaf0447ccb11180063fcbc19321e37bff816dba
4b6085f2012636676f3085441f0c7a2ae454e66606dc30807e630768d81765cf34fd5564ef0c1fe3715bc44d876ca054c3827b72e6de3e056f6278fd38f6dda5
88104954a1f1a391d524a68bb6c142284112fd3e83cfc156d9fcf3776ce21a6fb4b4b0b53d26cf4006ed3c67f44ca556644126c9831a96bd25125f3d6352aa25
cd1de7be9c259aebd524a68bb6c142283398e55ee03929a8e8353a9791baf4a2086d27e42e54c56d59a1b6cb2559f09ee5249bf448dad1a6e3bc599de20d5518
2eefc93f04425b16706b807646b803713f1e676c514b264fa782449da9b659094f8bfb77fa42da9cc97dc8871ae65180fc51fff62f64f85d9657e112ba03c526
6d49de955a519fb5aa226ddcd7a97fd33fd6864ccd1316b133329347afd5d8a766eaeb9fc4cc8ae14eaa7e04a84fdd79f140a0b8c1e769ab3fc8faff822d845f
af399d32d282acb6f189b8d6c9ffd7d874c13f70e0d25e2a01cbeeb626e629d06ec87a08b8e591ff02b5fc57fc67f6e3bc6d1513a31871a9a8266151f2f09bf5
166469be15bf8110d524a68bb6c142289290c0cacb4e7dbbb829173c0531beedb4b4b0b53d26cf40b97fa4abd5654b1c644126c9831a96bd25125f3d6352aa25
6d49de955a519fb52716e67bb37c73923fd6864ccd1316b1c453610b7c3254db66eaeb9fc4cc8ae10223100956190b077b1caa27fa7e51fdede3a99448520d58
8675a01b2db95be79415b2e6462e99b69bd9057afffc8a022806b0569de89693c0df281eecaf0447ccb11180063fcbc11fe13b31a2eea9fd19cc5d40a4ac5a35
2986d3b813782655cd9f9b0fe66d8ad191e8ddb1dba1fb1d28e706599b3e5d7410927c8f3d71af4002331898e1368c785e907deffd12c5fff9224a01a31d483a
b31205aa407e75cde847dda77d5f9443a4340d1342adf64d6da1e4e9a95c1ae091dd65f2a1d7e3d30b8a6d3c58272e46f729696f8051456885a287c7f30dfddb
4b6085f2012636676f3085441f0c7a2ae454e66606dc30807e630768d81765cf34fd5564ef0c1fe3715bc44d876ca054c3827b72e6de3e056f6278fd38f6dda5
d1e39a357f7e725b706b807646b80371bb822d12aaf70a11287bae25f5d3cfbbe9757ec29ff8274efd9b2534b51de479bf1ee911780421dd4d0ef8cd4a9bb0be
2bbfeab6ea829202706b807646b803717f8955653a56355135b056b1af264623bf1ee911780421dd48fa2b801bbe70ad7ec3b91f96cb5d16a18c6e8c0bbbbd55
1aa66987196a3861706b807646b80371131c3200e2e97e1968d7dae3d278fb41f7d91000f67d3cf193f0978bcaae26c25e907deffd12c5fff9224a01a31d483a
b31205aa407e75cde847dda77d5f9443a4340d1342adf64d6da1e4e9a95c1ae091dd65f2a1d7e3d30b8a6d3c58272e46f729696f8051456885a287c7f30dfddb
4b6085f2012636675a0aa31c52cddba976617f42cd5d956ba4340d1342adf64d6da1e4e9a95c1ae091dd65f2a1d7e3d30b8a6d3c58272e46a0cd98020b8386f2
629e4b0ddfdbb004706b807646b8037182e90680e937f99980af03cbc996d569eba12606d697390abf1ee911780421dd48fa2b801bbe70adf7403ac294d20be0
6d49de955a519fb5096868daebc8a6713fd6864ccd1316b1623c490cc6abbfdf66eaeb9fc4cc8ae11c18fb5159f1d9e0b8de30c168e9fde4ab95b88f66054a65
f44496155f03ed4f4481f81f784158a5b883e0a23c899956bdbb7b5f6b496c279ad8cf0483344e782084ee5a9507a0010ac3a98ab061ca3871e7df5af6ef2c66
2986d3b813782655706b807646b80371bbdca32fe19032bbc6b719c23749e616b56da5940d4cfb46d2bbd7e847d638e1e776e9b255bda08c8cc849879194c8ab
021166ac3753b7b8e5249bf448dad1a6454e25a4a9e76affb8a3a1fac16e2d27a97cbfa256a6ac5aab1ee36ac31cd6774f274f57c770c9078e5f12e71fd61630
4b6085f2012636675a0aa31c52cddba976617f42cd5d956ba4340d1342adf64d6da1e4e9a95c1ae091dd65f2a1d7e3d30b8a6d3c58272e46a0cd98020b8386f2
18d6324ed03fd148706b807646b803713f1e676c514b264f31154600e349b8664f8bfb77fa42da9cc97dc8871ae65180fc51fff62f64f85d9657e112ba03c526
e83d563d614d5ce9a86435b18b9c12cee01c7c5f2f296a03644126c9831a96bda4340d1342adf64d6da1e4e9a95c1ae091dd65f2a1d7e3d3545bb6bdbc1c2a8b
b90e0c5fe970b38726c880f485e2ca341b8b9a9bd6e6680756bfede5d11cc7ca9415b2e6462e99b69bd9057afffc8a022806b0569de896935a1c7ef332593c46
a3f576b848cd34f98cb7d6aeea51227f14dcbc51bdb3663a4481f81f784158a5b883e0a23c899956bdbb7b5f6b496c279ad8cf0483344e78ac985d955d45a0de
0dea85bdd2f61705fefa9ff831ca09ff30f08b4c7bb60c39faf642e56b704c7248fa2b801bbe70ad7ec3b91f96cb5d16db8b64706bcf3d795a2b4ca0a371124b
717cdf892ff6b6ffd811871cc3622e4ac6015dd16546a27e56bfede5d11cc7ca9415b2e6462e99b69bd9057afffc8a022806b0569de896935a1c7ef332593c46
2a0dde369b0e03c9a3e34a01a105a7035e5960c2e73fba28f03333e45184dcdbd536f0935979270d6af9d5413214ba985911b2e9db277617789dfe9e3750721c
f448aa8b445158d3c55c8187f39b70be48fa2b801bbe70ad7ec3b91f96cb5d16db8b64706bcf3d7913fbf2c0d96c1a0430db37560a30a0a006739eee38b2e802
4b6085f2012636675a0aa31c52cddba976617f42cd5d956ba4340d1342adf64d6da1e4e9a95c1ae091dd65f2a1d7e3d30b8a6d3c58272e46a0cd98020b8386f2
3c4b13895afabd52cc0121b5e20e2076d192acabc40db247860f07afa8d0e7f77208a85e1aefd30a964f9f3bbb023c9bcce6fbfd25bf09ce2cfe4235b1593eec
af399d32d282acb6f189b8d6c9ffd7d874c13f70e0d25e2a01cbeeb626e629d06ec87a08b8e591ff02b5fc57fc67f6e3bc6d1513a31871a9a8266151f2f09bf5
3c4b13895afabd52239bdbe658d21d0017332988c1af7d8e8e263b3e0c8c1529b911df424e291871f584b19b987a5eb6d4dfa4792046c0e0a4fc262acecf8d76
b5f1c17ee795630348fa2b801bbe70ad7ec3b91f96cb5d16db8b64706bcf3d7913fbf2c0d96c1a0430db37560a30a0a040bc98df3837a0aefb23c5cb58ac1928
e911de94c5169114706b807646b80371f7944fb36952b6201306044f27cad6c14797c573c3c85ad1644126c9831a96bda4340d1342adf64db874e6222205fc55
f68dde72917c440e706b807646b80371cb69e329eeb3a3255abe3cd1c687edb02602cea22851f15b2365de18320a7badee02d7df2a1451c6378f4f8449dbf710
8318958aa75d4556dad4b7980b83d60ce454e66606dc30807e630768d81765cf34fd5564ef0c1fe3715bc44d876ca054c3827b72e6de3e056f6278fd38f6dda5
bbf0a766f49a242c2637e9cac2aa5cea2cecad1ebf804c4bf467148f06ca8e4348fa2b801bbe70ad7ec3b91f96cb5d16db8b64706bcf3d795a2b4ca0a371124b
bae09e065d93d1aa706b807646b80371eae8eadbfaf4725b81368893a8def2856d778da11d98c3a2e4cb0e54310f41ffb32eae440ae09a477ec09cef15c57fb0
1933952b4dcad44c74c7e4af17ab9cebf189b8d6c9ffd7d874c13f70e0d25e2a01cbeeb626e629d06ec87a08b8e591ff02b5fc57fc67f6e3f239fbc4eca12e9e
8767f397bff4c3a731bbfa71d5efb6fe102372497787b35c4481f81f784158a5b883e0a23c899956bdbb7b5f6b496c279ad8cf0483344e78ac985d955d45a0de
3c4b13895afabd52c12e63f53fc8b6c717332988c1af7d8eda00bbb52c3f34456b574213c15e8d896ff2c4226d0d032e467230e8447f8d694f54ac2e669f8e35
bdcdc3e4fa3806fe8675a01b2db95be79415b2e6462e99b69bd9057afffc8a022806b0569de89693c0df281eecaf0447ccb11180063fcbc19321e37bff816dba
a15f102681e4541f706b807646b803713f003551e73061568836fff571401a785067b92a4f541904049aca6b16e8846f63ffb9eb4cb056fb378f4f8449dbf710
8318958aa75d4556dad4b7980b83d60ce454e66606dc30807e630768d81765cf34fd5564ef0c1fe3715bc44d876ca054c3827b72e6de3e056f6278fd38f6dda5
bbf0a766f49a242c2637e9cac2aa5cea2cecad1ebf804c4bf467148f06ca8e4348fa2b801bbe70ad7ec3b91f96cb5d16db8b64706bcf3d795a2b4ca0a371124b
229612c51263561c706b807646b80371c542c415c8ead64e5a98ed9a38efa1a4cf11f7927a7584f9d4a6275e9bdad48d8dcea2cdd2d3d5ccd573267e41263c5c
dd06c2baef735cae2b1410deca799d734481f81f784158a5b883e0a23c899956bdbb7b5f6b496c279ad8cf0483344e782084ee5a9507a0016cafa99a43970338
4b6085f2012636675a0aa31c52cddba976617f42cd5d956ba4340d1342adf64d6da1e4e9a95c1ae091dd65f2a1d7e3d30b8a6d3c58272e46a0cd98020b8386f2
788ef7945d0b148a706b807646b80371c38aa6d72dd0c70a4549341d5646fb2be3937cb6b1c4fdebe5249bf448dad1a6454e25a4a9e76aff4aa562c4653e6128
e66986ac8efd7292706b807646b803712550a4951c4ad583305a4fb08e74d013fe2397569e9b88d192c636aaa2bda9c35314e44f8dbca9aa7846daed4c599468
4f52237e05fcdaf4b31205aa407e75cde847dda77d5f9443a4340d1342adf64d6da1e4e9a95c1ae091dd65f2a1d7e3d30b8a6d3c58272e46a0cd98020b8386f2
4b6085f2012636675a0aa31c52cddba976617f42cd5d956ba4340d1342adf64d6da1e4e9a95c1ae091dd65f2a1d7e3d30b8a6d3c58272e46a0cd98020b8386f2
5b626bede5d4afa8706b807646b803716a6e35db0e6e383fbbdca32fe19032bb6a9774d8558823123f4be767f351753cf50053d0831e676550794576b4f63d0d
5e907deffd12c5ffdd06c2baef735cae36806a8e381bf9a0a4340d1342adf64d6da1e4e9a95c1ae091dd65f2a1d7e3d30b8a6d3c58272e46a0cd98020b8386f2
8767f397bff4c3a731bbfa71d5efb6fe102372497787b35c4481f81f784158a5b883e0a23c899956bdbb7b5f6b496c279ad8cf0483344e78ac985d955d45a0de
31fc7823798ba5db706b807646b80371a83c691bcf781916bdf1392bd6b05203ecd4bef82b354b5136806a8e381bf9a0a4340d1342adf64db874e6222205fc55
22109447ac7735c5706b807646b80371cf11f7927a7584f9b2807031ae9de6e16357343e3854285e942b6e3d1b3a61ac68ea8b4525f02c99c73e819e61dd51c4
1c7432cde066cf95ba5ee84b4ef1eeaf60a188d940e604c11933952b4dcad44ca68ba69006c80e09f1b6bc29d103b9156d913effe3ea91176ee91eb32eece478
14e2c23de6b0bcf0706b807646b80371a83c691bcf781916b53ade97673d2e2077d517fce5e4f03cd2bbd7e847d638e1e776e9b255bda08c8cc849879194c8ab
021166ac3753b7b8e5249bf448dad1a6454e25a4a9e76affb8a3a1fac16e2d27a97cbfa256a6ac5aab1ee36ac31cd6774f274f57c770c9078e5f12e71fd61630
4b6085f2012636676f3085441f0c7a2ae454e66606dc30807e630768d81765cf34fd5564ef0c1fe3715bc44d876ca054c3827b72e6de3e056f6278fd38f6dda5
01df1368f4de34bc706b807646b803717c434c9f13c6830fee17e7c4085b175b637ddfe603fe8c2e36806a8e381bf9a0a4340d1342adf64db874e6222205fc55
3c4b13895afabd52cd9f9b0fe66d8ad17a562ca436415de7a5c3587b9e7b78051ae2c47eafc92f130cfe7c0d7943605ae15057d480f59ab358ddf72c00c36cd1
e51cec7244716c4a706b807646b80371447a2c643a647f525067b92a4f5419043f9b07d5d2d12130644126c9831a96bda4340d1342adf64db874e6222205fc55
142e5ba8459ad295706b807646b80371bfd0aa98a3eafb34ac535ded813516d4644126c9831a96bda4340d1342adf64d6da1e4e9a95c1ae064bc718effa8b05b
09d24eba1809cfe9706b807646b80371248d494cba5074d5f128fce20254768ff189b8d6c9ffd7d874c13f70e0d25e2a01cbeeb626e629d066408b795143d2d0
0e84779c45a61693148991d4cf2e47bb2149f072acfcc3e4be2fa0acd7d8333de5249bf448dad1a6454e25a4a9e76affb8a3a1fac16e2d27993edd95504de84e
87155901eac6e85d706b807646b80371badb410d4f1405d804099236efd4ee35bae94b34de2a02b993f0978bcaae26c25e907deffd12c5fff9224a01a31d483a
b31205aa407e75cde847dda77d5f9443a4340d1342adf64d6da1e4e9a95c1ae091dd65f2a1d7e3d30b8a6d3c58272e46f729696f8051456885a287c7f30dfddb
4b6085f2012636675a0aa31c52cddba976617f42cd5d956ba4340d1342adf64d6da1e4e9a95c1ae091dd65f2a1d7e3d30b8a6d3c58272e46a0cd98020b8386f2
b3598f0637b1f897706b807646b80371137583c175b0696a307ba942667f8cd24b2d7c967a45a30182075f0ffcde2ba75314e44f8dbca9aa7846daed4c599468
4f52237e05fcdaf4b31205aa407e75cde847dda77d5f9443a4340d1342adf64d6da1e4e9a95c1ae091dd65f2a1d7e3d30b8a6d3c58272e46a0cd98020b8386f2
4b6085f2012636675a0aa31c52cddba976617f42cd5d956ba4340d1342adf64d6da1e4e9a95c1ae091dd65f2a1d7e3d30b8a6d3c58272e46a0cd98020b8386f2
c2bd63b0ac96d30e706b807646b80371f0ead59492afca9a4e66095aeade8302efb53323988d82d0e5249bf448dad1a6454e25a4a9e76aff4aa562c4653e6128
77bf8dffa285767c706b807646b80371854c49658a4229731ac015ac15bce42be51f1f11d46961ca644126c9831a96bda4340d1342adf64db874e6222205fc55
299457cdcb3f6c18706b807646b8037123ced3b7ef840f7bf1c34e0bebcb1b3b5dc33ae8fbc964dc493add1c9ab5e27588b96b7c831faa4af2d5e5299905ab7b
a68ba69006c80e09157dcbb6421b1256c97dc8871ae65180fc51fff62f64f85d8483f42bfc783f548b67790923e54fb3e3dbb2b302a846e91fddabc96bbfaf00
4b6085f2012636676f3085441f0c7a2ae454e66606dc30807e630768d81765cf34fd5564ef0c1fe3715bc44d876ca054c3827b72e6de3e056f6278fd38f6dda5
0247c1519e6837e3706b807646b80371d5c6939e5b1ea076699bc0f0e978c8b2fb3ec2869302272f95e94d06b2f52993e5d0ef928f2dd9cb3d7a1d55a1f8807a
75963efd3ee34e16b032015482838020e5249bf448dad1a6454e25a4a9e76affb8a3a1fac16e2d27a97cbfa256a6ac5aab1ee36ac31cd677bbfbca984cba6ad9
bbf0a766f49a242c2637e9cac2aa5cea2cecad1ebf804c4bf467148f06ca8e4348fa2b801bbe70ad7ec3b91f96cb5d16db8b64706bcf3d795a2b4ca0a371124b
564af27038fbdf81706b807646b80371c542c415c8ead64e3b50370d6af31039cb43076903417b7660a188d940e604c11933952b4dcad44cddbcbfc1bd38a8ed
67d2eff95da56274f189b8d6c9ffd7d874c13f70e0d25e2a01cbeeb626e629d06ec87a08b8e591ff02b5fc57fc67f6e3bc6d1513a31871a9a8266151f2f09bf5
4b6085f2012636675a0aa31c52cddba976617f42cd5d956ba4340d1342adf64d6da1e4e9a95c1ae091dd65f2a1d7e3d30b8a6d3c58272e46a0cd98020b8386f2
5ce56fbac3efb003706b807646b803710652e64855ffcaee4ea88ee9b41e51fa644126c9831a96bda4340d1342adf64d6da1e4e9a95c1ae064bc718effa8b05b
6e9873282cc9b621706b807646b80371e50a99b0276fefaee65e14235aeb9e7a644126c9831a96bda4340d1342adf64d6da1e4e9a95c1ae064bc718effa8b05b
6ddfc4c479207ce1706b807646b803717c434c9f13c6830faac7087bfae2f11c1cbe9fb8f8756dcbd2bbd7e847d638e1e776e9b255bda08c8cc849879194c8ab
021166ac3753b7b8e5249bf448dad1a6454e25a4a9e76affb8a3a1fac16e2d27a97cbfa256a6ac5aab1ee36ac31cd6774f274f57c770c9078e5f12e71fd61630
4b6085f2012636676f3085441f0c7a2ae454e66606dc30807e630768d81765cf34fd5564ef0c1fe3715bc44d876ca054c3827b72e6de3e056f6278fd38f6dda5
8f45214203816487706b807646b80371707c5bc82b95116eb7cac8628b5f5e0b644126c9831a96bda4340d1342adf64d6da1e4e9a95c1ae064bc718effa8b05b
d4ad3fb08d9ca68f706b807646b80371f77563697d24c2255067b92a4f5419043f9b07d5d2d12130644126c9831a96bda4340d1342adf64db874e6222205fc55
f317d974ecd67d3f706b807646b80371ec059d59702f7d99224f0ec4f0ae13e96f3e4bedcf297bfb25bae1f3d361265a644126c9831a96bd25125f3d6352aa25
f21d6fc267c6f67c706b807646b803711b05d50cea7fa8b8ec54da158b4bfa545067b92a4f541904470eab87f9ef8449e5249bf448dad1a6e3bc599de20d5518
2e781867abaac5ce7b0fa4e3d84384a872c56685f1a6411a44f85fb653169fd3fa460eccc75cda6d88b96b7c831faa4a4f52237e05fcdaf425ed85a6c6b0785e
157dcbb6421b1256c97dc8871ae65180fc51fff62f64f85d8483f42bfc783f548b67790923e54fb3e3dbb2b302a846e9c25d7f711e1f015a5c8fc1584f2de295
4b6085f2012636675a0aa31c52cddba976617f42cd5d956ba4340d1342adf64d6da1e4e9a95c1ae091dd65f2a1d7e3d30b8a6d3c58272e46a0cd98020b8386f2
6e5e2c1f39d1b8ff706b807646b80371db3630d71d986db28492e52ca99071378869b1f7b74c0e2ce6e4d16b322b83f5e454e66606dc3080ff0568f519479800
94fab6a88c3a1cacf45310c19b6b8ee57615813afbd45b2b9a13b06ff04bbee7c97dc8871ae65180fc51fff62f64f85d8483f42bfc783f544e515e97537dcbff
415bb1896fab9a822716e67bb37c7392e4aaf934848e6c95f9cd5bd77adef1b4ce5ec34e6f8ad1caef4f3875e50e3c05b585a4c9552c0d002a994fc66a0ea682
568c127aa4a72fed4481f81f784158a5b883e0a23c899956bdbb7b5f6b496c279ad8cf0483344e782084ee5a9507a0010ac3a98ab061ca3871e7df5af6ef2c66
02f1d830c458064c8d039f023d45f3c7f189b8d6c9ffd7d874c13f70e0d25e2a01cbeeb626e629d06ec87a08b8e591ff02b5fc57fc67f6e3f239fbc4eca12e9e
5fd748946993a2d78cc3940d0ca75f0158b8b76bf379ab217d31a43bbe47493265905a8cda4805c41fdb76914943873b8084ae99f1824b9088c21f0cefbebc3b
d14a7be013205a65cd9f9b0fe66d8ad1f6130e40c9bd4aa15d428f97cf27e7027b5dd9387444756789f3af819ef82909c97dc8871ae6518079efbecea8dc6c48
415bb1896fab9a82aa226ddcd7a97fd3e4aaf934848e6c951a45a52e897dd29ece5ec34e6f8ad1ca55e10a8cbbe1e7bffe300f024fcb23281070c2f6c208232c
3709e57c97472f614481f81f784158a5b883e0a23c899956bdbb7b5f6b496c279ad8cf0483344e782084ee5a9507a0010ac3a98ab061ca3871e7df5af6ef2c66
1f44d54f2a0109abcc3bf14d21816bfabf1ee911780421dd48fa2b801bbe70ad7ec3b91f96cb5d16db8b64706bcf3d7913fbf2c0d96c1a04f331d56dc91e9efb
237dc9a00aac2c54afa4d8ee2c2d41ede73070a45f1d549cc97dc8871ae65180fc51fff62f64f85d8483f42bfc783f548b67790923e54fb3679abed7c1c7e3b6
8811cc74461313c0706b807646b8037199e9ff185ff7be98c0d636d8bb18a69f8f7433a4197efd0548fa2b801bbe70ad7ec3b91f96cb5d16a18c6e8c0bbbbd55
d689cd79188b84d2706b807646b80371b37e8930bd0d25a5c99a0df68626b318644126c9831a96bda4340d1342adf64d6da1e4e9a95c1ae064bc718effa8b05b
f500035ac54d811fedfde4da305f70fa44aac1ff28ae947063ffd8a57a592f0edc45e4ce5e413dfb78b54ce720b1001e0c9665cf8b9f77f1a5d7d09ae0734b29
7ce2eff26a71cddee71f71e187584171a4340d1342adf64d6da1e4e9a95c1ae091dd65f2a1d7e3d30b8a6d3c58272e46f729696f8051456885a287c7f30dfddb
7a34240227de46f7706b807646b80371a5b5c5e766eac5022f9b48beb5f0e91ce454e66606dc30807e630768d81765cf34fd5564ef0c1fe3f364c743f5d84b2b
c6670009e44e517c706b807646b80371541d423de02817ec70c01fc6379b5f6756bfede5d11cc7ca9415b2e6462e99b69bd9057afffc8a02423c338c4c217082
760c6a5cfe47d4cb706b807646b80371c542c415c8ead64ecd32c038f3dd1266cd6741a80bc38b1a8dcea2cdd2d3d5cc9783ae8e4821c68fb9549840541e7e65
2b1410deca799d734481f81f784158a5b883e0a23c899956bdbb7b5f6b496c279ad8cf0483344e782084ee5a9507a0010ac3a98ab061ca3871e7df5af6ef2c66
4b6085f2012636675a0aa31c52cddba976617f42cd5d956ba4340d1342adf64d6da1e4e9a95c1ae091dd65f2a1d7e3d30b8a6d3c58272e46a0cd98020b8386f2
262554f8b25c4d09706b807646b803714d50ea52b4823a93eeb20117471924236542c2127b492b3d4481f81f784158a5b883e0a23c899956bb13bd543c4de524
0f14d9217fafef99706b807646b8037199e9ff185ff7be9869ebc2c4e4a262907ddcfe3116556fc9d6b3593c88b73838f189b8d6c9ffd7d8e0f44df1396c8e7b
415bb1896fab9a829f50c449b546348ce4aaf934848e6c952f865ab55ddc5e1fce5ec34e6f8ad1ca90d81df171eebb85c41ce2ee4ff43816cd0d78d6f30c8c35
aa33655883cb978b4481f81f784158a5b883e0a23c899956bdbb7b5f6b496c279ad8cf0483344e782084ee5a9507a0010ac3a98ab061ca3871e7df5af6ef2c66
e739768e23ec2870706b807646b80371541d423de02817ecd387b47910ec6f1e56bfede5d11cc7ca9415b2e6462e99b69bd9057afffc8a02423c338c4c217082
d14a7be013205a65a665d0fac02ce03ef6130e40c9bd4aa1715d8e77818728a16fdec7f729fb1d4759b0da0dbcba5b7ee454e66606dc3080ff0568f519479800
394197bedeb77a7118a5d77de747c68b395066fea52024e3e6f728924fc9d29ac97dc8871ae65180fc51fff62f64f85d8483f42bfc783f544e515e97537dcbff
e080b6f7611af9f1151d9c1419fbf08c7c8ed4d333fbb27a723b1363936fe6e675963efd3ee34e16b0320154828380204e26894942562954756dacbeca4bc899
2cecad1ebf804c4bf467148f06ca8e4348fa2b801bbe70ad7ec3b91f96cb5d16db8b64706bcf3d7913fbf2c0d96c1a0430db37560a30a0a006739eee38b2e802
e644fc3843e7ff1b1ece443f450d807214dcbc51bdb3663a4481f81f784158a5b883e0a23c899956bdbb7b5f6b496c279ad8cf0483344e78ac985d955d45a0de
7e6fddfd8efbb9b0409e8f8de4d71dcff7053d184fafab952f7e2f9edabe55d3e03726d853bf94a5783af24c607d4f54bc1979063a03b7bed38aff4e12555a5d
d29a3819b03a632a706b807646b80371b10f8c8f5d7b15a10cfc026ea770b7b8cb43076903417b7660a188d940e604c11933952b4dcad44cddbcbfc1bd38a8ed
67d2eff95da56274f189b8d6c9ffd7d874c13f70e0d25e2a01cbeeb626e629d06ec87a08b8e591ff02b5fc57fc67f6e3bc6d1513a31871a9a8266151f2f09bf5
4b6085f2012636675a0aa31c52cddba976617f42cd5d956ba4340d1342adf64d6da1e4e9a95c1ae091dd65f2a1d7e3d30b8a6d3c58272e46a0cd98020b8386f2
0de6f0b1b4b3b28b706b807646b803718987015d4f860fdd4eeb07a0796bf8026b96aef8a26d8a1ebcf8eb42d8c72e67768a06c2ffc6c2e2ddee7b1319ce286c
0d71fdea37a778c9502f880bef78c1059415b2e6462e99b69bd9057afffc8a022806b0569de89693c0df281eecaf0447ccb11180063fcbc19321e37bff816dba
cdaa385411811e27bfd81d659a09e4b32637e9cac2aa5ceafd49a287c76beca9cf3db11be0503885f189b8d6c9ffd7d874c13f70e0d25e2a9210bb4f2e1f8002
1d8e0afd88a08353706b807646b80371927380a879f5ec619b866ef425aabebb568b79be720e1d7a89f3af819ef82909c97dc8871ae6518079efbecea8dc6c48
6bd9931e299a691a706b807646b80371721b512e8212cf04d3587b2757792ba52fdb8673d98428b2df9926a5196e85951773e723fbae44a83a2b6cbae9d4da02
e556b1c15460ae6f38380075bb5248d8e454e66606dc30807e630768d81765cf34fd5564ef0c1fe3715bc44d876ca054c3827b72e6de3e056f6278fd38f6dda5
cdaa385411811e27bfd81d659a09e4b32637e9cac2aa5cea2cecad1ebf804c4bf467148f06ca8e4348fa2b801bbe70ad7ec3b91f96cb5d16a18c6e8c0bbbbd55
114fa6e869ae2eeb706b807646b803718cfb13ff57bb877f5b827c553b693ee837f6d0376a8a7c03c97dc8871ae65180fc51fff62f64f85d9657e112ba03c526
f9c81f2aad4ad1cb706b807646b803714c1a5ee7865c742a75971778a6063093182f7123dafef91ebf1ee911780421dd48fa2b801bbe70adf7403ac294d20be0
82d2e7992b7a58af706b807646b80371159cb31a650e125a6d111121783d1ab6cfd91b074ecd5dd61d1785ae08d6df0a825651368d6f7ad6e4e72beed32b1f99
5911b2e9db27761795d7fcca0b5012cc9415b2e6462e99b69bd9057afffc8a022806b0569de89693c0df281eecaf0447ccb11180063fcbc19321e37bff816dba
bbf0a766f49a242c2637e9cac2aa5cea2cecad1ebf804c4bf467148f06ca8e4348fa2b801bbe70ad7ec3b91f96cb5d16db8b64706bcf3d795a2b4ca0a371124b
d8514a1858f4e061706b807646b803717e3b4865b613967a9c74b842040644e977613009a254ab8654d8f4275cc2bea6b767c3f00d93a15b4adf6f2ec3bc536c
784dff1b2e8e2f3138380075bb5248d8e454e66606dc30807e630768d81765cf34fd5564ef0c1fe3715bc44d876ca054c3827b72e6de3e056f6278fd38f6dda5
cdaa385411811e27bfd81d659a09e4b32637e9cac2aa5ceafd49a287c76beca9cf3db11be0503885f189b8d6c9ffd7d874c13f70e0d25e2a9210bb4f2e1f8002
a40072fa2b99fd1b706b807646b80371e45fa301b7d2316a495d788ea889f98a81a4fdfefcef9c30b9e71e98c70081e91efa4d69287b8e8ac27a0fe47ba19b0a
4651b4c215cbe2b1c23cdff2c91ac4509415b2e6462e99b69bd9057afffc8a022806b0569de89693c0df281eecaf0447ccb11180063fcbc19321e37bff816dba
8767f397bff4c3a731bbfa71d5efb6fe102372497787b35c4481f81f784158a5b883e0a23c899956bdbb7b5f6b496c279ad8cf0483344e78ac985d955d45a0de
f28257b2a3730294706b807646b803713a40cc23683d958fb40e7385cf53ebfa4481f81f784158a5b883e0a23c899956bdbb7b5f6b496c27a2c9a429cfeb2812
5ce015494c01cf89706b807646b80371159cb31a650e125a6d111121783d1ab69d83ec4ebc4d23100580e96d03c32ab7599dd2682f9397f5de822c2514579701
6f9b23ee1fe48910706b807646b803711974c4df24ffe5fb1b3ec14f6b9dd67fbd6de5957aa58fa6e0142dd9f247cd8fbc8010599de6f88b7846daed4c599468
4f52237e05fcdaf4b31205aa407e75cde847dda77d5f9443a4340d1342adf64d6da1e4e9a95c1ae091dd65f2a1d7e3d30b8a6d3c58272e46a0cd98020b8386f2
4b6085f2012636676f3085441f0c7a2ae454e66606dc30807e630768d81765cf34fd5564ef0c1fe3715bc44d876ca054c3827b72e6de3e056f6278fd38f6dda5
54653036f112a7e5706b807646b8037136813470785747985b9790e7e3f6dacff485090264e21ce5e454e66606dc30807e630768d81765cf109263e466536053
f9d40bfe034dc9e4706b807646b803719f4668374a3d95d259cb50bda0fcba5c5dc15dd95a1d807089f3af819ef82909c97dc8871ae6518079efbecea8dc6c48
6400e88c0aa4cd28706b807646b803715198a1db3eca956505c31404c473e76c6130ccc69a0c327ef189b8d6c9ffd7d874c13f70e0d25e2a9210bb4f2e1f8002
d70b17c9c4ed7e9a706b807646b8037110508735ea329a194627076648b03faf927380a879f5ec614367625780a4a502d2bbd7e847d638e106ca5c9d845745cf
a5257eba54077ab5021166ac3753b7b8e5249bf448dad1a6454e25a4a9e76affb8a3a1fac16e2d27a97cbfa256a6ac5aab1ee36ac31cd677bbfbca984cba6ad9
4b6085f2012636676f3085441f0c7a2ae454e66606dc30807e630768d81765cf34fd5564ef0c1fe3715bc44d876ca054c3827b72e6de3e056f6278fd38f6dda5
22cc75479b3d980a706b807646b80371971fb5cec3eaabb31e06c2a2bf145348bd1a43d4d2ea5f1ee454e66606dc30807e630768d81765cf109263e466536053
e9f419af62bfe95eeb87848776396383b976f14cf6b3b2ed601714edf0a8d6a06b574213c15e8d89949b4f83ca1bc0e0ca70f4f2e8ae549a9bfe5c8194ae406a
c763bdc5d5a89e0fe5249bf448dad1a6454e25a4a9e76affb8a3a1fac16e2d27a97cbfa256a6ac5aab1ee36ac31cd6774f274f57c770c9078e5f12e71fd61630
36384b4991f288fe3ca19cdd275ba5a46f5e2f1458abb79702b4d605f02961059415b2e6462e99b69bd9057afffc8a022806b0569de896935a1c7ef332593c46
dc18d426fcb57a1049e634e25e706ae831240f9abf68d99ee71f71e187584171a4340d1342adf64d6da1e4e9a95c1ae091dd65f2a1d7e3d3545bb6bdbc1c2a8b
cc09709c562a8286706b807646b80371f14ced83d313f1f9053ca22133068086e5249bf448dad1a6454e25a4a9e76affb8a3a1fac16e2d27993edd95504de84e
b67df0d3ab862a12706b807646b80371159cb31a650e125a8430e9e74c35a67662f3ee5d1d393b17d6d9fe9ed8c44e7cbf1ee911780421dd4d0ef8cd4a9bb0be
649ba0f94237de9e706b807646b80371017a35399c1e85c8e984032db3675b4b79f7cd50ddf5b9cbd2bbd7e847d638e1e776e9b255bda08c8cc849879194c8ab
021166ac3753b7b8e5249bf448dad1a6454e25a4a9e76affb8a3a1fac16e2d27a97cbfa256a6ac5aab1ee36ac31cd6774f274f57c770c9078e5f12e71fd61630
4b6085f2012636675a0aa31c52cddba976617f42cd5d956ba4340d1342adf64d6da1e4e9a95c1ae091dd65f2a1d7e3d30b8a6d3c58272e46a0cd98020b8386f2
9e700d1bd10bd6d1706b807646b803711d1785ae08d6df0abaf791ec10d591eee576010d527d559e6d2b5fca67daa452ac22d4c023618a3ab835968d2587fcb3
75963efd3ee34e16b032015482838020e5249bf448dad1a6454e25a4a9e76affb8a3a1fac16e2d27a97cbfa256a6ac5aab1ee36ac31cd677bbfbca984cba6ad9
bbf0a766f49a242c2637e9cac2aa5cea2cecad1ebf804c4bf467148f06ca8e4348fa2b801bbe70ad7ec3b91f96cb5d16db8b64706bcf3d795a2b4ca0a371124b
f55d627e5b6a5781706b807646b803715198a1db3eca95658af3649f518cdefebf1ee911780421dd48fa2b801bbe70ad7ec3b91f96cb5d16a18c6e8c0bbbbd55
6001ce11cd9cdc99706b807646b803714b5260a5aff375287164f4036ee803fb895d090a759f8331c97dc8871ae65180fc51fff62f64f85d9657e112ba03c526
a640afca273b027d706b807646b80371aee2197e5894ac1929c23861cdc018b8e5249bf448dad1a6454e25a4a9e76affb8a3a1fac16e2d27993edd95504de84e
cb4d0f1cd39f6911706b807646b80371bb5821cfc4ee80459863b2e5311db4a6ac43b6a39d32a0e2245b080e1c7eb41df77808d7ee6e7435e4e72beed32b1f99
5911b2e9db27761795d7fcca0b5012cc9415b2e6462e99b69bd9057afffc8a022806b0569de89693c0df281eecaf0447ccb11180063fcbc19321e37bff816dba
bbf0a766f49a242c2637e9cac2aa5ceafd49a287c76beca9cf3db11be0503885f189b8d6c9ffd7d874c13f70e0d25e2a01cbeeb626e629d066408b795143d2d0
cc4ebde65d1469677e23d713569955576b2dc1678832a7211e06c2a2bf145348159cb31a650e125acf9e8da00bacc5551055a156cf523494e21bf669864d88b6
e9f419af62bfe95ecc0121b5e20e2076dd03756fad4bf4945af6a6897d531dee774e14ee3514819b714f855d3587b3189025a689fc80373667a82ba84dea3733
61e7af799e49b4466ff4f187d09c96b2e5249bf448dad1a6454e25a4a9e76affb8a3a1fac16e2d27a97cbfa256a6ac5aab1ee36ac31cd677bbfbca984cba6ad9
f558731b40f47bc3b4742cc5fdfe20b3e71f71e187584171a4340d1342adf64d6da1e4e9a95c1ae091dd65f2a1d7e3d30b8a6d3c58272e46a0cd98020b8386f2
0be1bd08545f4ec3706b807646b803717f3db5332bd82c63e832aa73b9e12382d770fe7173f29fa46ab00796741b7aa84481f81f784158a5226391755dcbb13e
3905556475ff6a06706b807646b8037138dc5ea1249702d232712d0863e025d48171b8729c31491f60a188d940e604c11933952b4dcad44cddbcbfc1bd38a8ed
67d2eff95da56274f189b8d6c9ffd7d874c13f70e0d25e2a01cbeeb626e629d06ec87a08b8e591ff02b5fc57fc67f6e3bc6d1513a31871a9a8266151f2f09bf5
4b6085f2012636675a0aa31c52cddba976617f42cd5d956ba4340d1342adf64d6da1e4e9a95c1ae091dd65f2a1d7e3d30b8a6d3c58272e46a0cd98020b8386f2
ee34e7210147ec2f706b807646b803715e349f95686f66c67c79fe7d4fcd1891644126c9831a96bda4340d1342adf64d6da1e4e9a95c1ae064bc718effa8b05b
1e36f10390632b7b706b807646b803712a8f7bf4cccda9b3b01d76cf51a4e5e36130ccc69a0c327ef189b8d6c9ffd7d874c13f70e0d25e2a9210bb4f2e1f8002
782515cfeeba6caa706b807646b8037115a50d90735415e230dea9070e3269bd658774a0775e5004bf1ee911780421dd48fa2b801bbe70adf7403ac294d20be0
29e36d847caf87f6706b807646b803711e6d92f9b99c04df05ecab542b5d113079318f275ab3ef2b4481f81f784158a5b883e0a23c899956bb13bd543c4de524
8e36af18aaaae5525bf8bd63954c8d1fe2fdb242a691b977e2020fb6cfef7c511e06c2a2bf145348f8fe2d14596af3b8783af24c607d4f54cbbcc96cbbd5ee34
303d7240d8c3139d48fa2b801bbe70ad7ec3b91f96cb5d16db8b64706bcf3d7913fbf2c0d96c1a0430db37560a30a0a040bc98df3837a0aefb23c5cb58ac1928
e9f419af62bfe95eb585b96681e0ca9b4d8ece8aa2610e5901e637cfcf1cb0236b574213c15e8d89cedf311ed8ed0099d340231c6ea7860049bf6dca2ecdfd7c
49e634e25e706ae8825fd59671ee85b24481f81f784158a5b883e0a23c899956bdbb7b5f6b496c279ad8cf0483344e782084ee5a9507a0016cafa99a43970338